data/case1354pegase_modified.m
function mpc = case1354pegase_modified
%   SALT variant of case1354pegase, generated by build_timing_cases.m:
%     - 234 transformer ratios set to 1 (as consistent with ParaEMT,
%       NREL's open-source EMT simulator, which reads the tap ratio
%       from the power flow but never uses it - its transformers are
%       stamped as a plain series R-L; see lib_numba.py "R-L model
%       xfmr", where xfmr_k is stored and never consumed. M. Xiong et
%       al., IEEE Trans. Power Del., vol. 39, no. 2, 2024), 6 phase
%       shifts set to 0
%     - 1757 branches reclassified from PI line to series R-L (their own
%       data has no resistance, no charging, or capacitive reactance,
%       so a PI line cannot describe them); impedances unchanged
%     - 0 line ratings set to 9999 MVA, standing in for MATPOWER's
%       "0 = unlimited" (not a real thermal limit)
%     - 0 generators dropped (offline or zero injection), 0 lumped
%       onto shared buses, 0 buses demoted PV -> PQ
%     - the case below is RE-SOLVED for this modified network in SALT, 
%       which can differ from MATPOWER file as-shipped for two reasons: the
%       source case is not itself a solved snapshot, and setting the tap
%       ratios to 1 moves the operating point again. Impedances,
%       loads, limits, shunts, bus types and areas are unchanged.
%
%CASE1354PEGASE_MODIFIED

%% MATPOWER Case Format : Version 2
mpc.version = '2';

%%-----  Power Flow Data  -----%%
%% system MVA base
mpc.baseMVA = 100;

%% bus data
%	bus_i	type	Pd	Qd	Gs	Bs	area	Vm	Va	baseKV	zone	Vmax	Vmin
mpc.bus = [
	3	1	151	48.8	0	4.69	0	1.01630193	-21.9814753	220	5	1.1	0.9;
	4	1	171.41	23.4	0	2.1	0	1.02452403	-7.06490042	220	5	1.1	0.9;
	10	1	134	24.7	0	12.44	0	0.986774576	-24.9639792	220	5	1.1	0.9;
	21	1	161.2	39.3	0	30.71	0	0.995201953	-22.5219641	220	5	1.1	0.9;
	22	1	0	-0	0	0.85	0	0.987337544	-18.9984776	220	5	1.1	0.9;
	26	1	167.3	54.8	0	110.54	0	1.03366549	-3.34526813	380	5	1.1	0.9;
	29	1	152.9	49.4	0	27.65	0	1.00626212	-13.7411127	380	5	1.1	0.9;
	44	1	-0	0	0	7.27	0	0.996218721	-22.6526714	220	5	1.1	0.9;
	53	1	48.65	16.1	0	7.14	0	1.06334878	-9.26276835	220	5	1.1	0.9;
	58	1	0	0	0	2.31	0	0.986242547	-15.7286849	380	5	1.1	0.9;
	59	1	119.2	20.7	0	3.31	0	0.983481013	-24.4180476	220	5	1.1	0.9;
	90	1	363.25	115.39	0	3.95	0	1.00842392	-27.98931	220	5	1.1	0.9;
	96	1	-8.4	28.66	0	3.49	0	1.02019894	-15.7778697	220	5	1.1	0.9;
	113	1	-0	-0	0	6.532711	0	1.03082853	-14.3134691	380	5	1.1	0.9;
	115	1	0	-0	0	4.21	0	1.00320136	-20.5605956	220	5	1.1	0.9;
	118	1	704.53	-35.33	0	13.102834	0	1.02123868	-11.4393078	380	5	1.1	0.9;
	124	2	0	0	0	0	0	1.081537	8.28288322	220	5	1.1	0.9;
	128	1	23.73	12.7	0	0.52	0	0.981608786	-17.0052617	220	5	1.1	0.9;
	145	1	38.34	5.6	0	7.64	0	1.03909547	-9.22115342	220	5	1.1	0.9;
	148	1	32.34	12	0	6.1	0	1.04156827	-8.1172294	220	5	1.1	0.9;
	150	2	0	0	0	0	0	1.062805	2.40184813	220	5	1.1	0.9;
	163	1	147.76	32.73	0	8.34	0	0.995397013	-10.8535297	220	5	1.1	0.9;
	171	1	100.8	13.2	0	5.24	0	1.0549485	-25.383085	220	5	1.1	0.9;
	174	1	370.5	-17	0	9.91	0	1.02064832	-28.8180682	220	5	1.1	0.9;
	184	1	-0	-0	0	2.42	0	1.01244914	-12.6966029	220	5	1.1	0.9;
	188	1	36.84	13.9	0	3.3	0	0.996244612	-19.8547433	220	5	1.1	0.9;
	195	1	73.14	21.55	0	8.52	0	1.05633503	-8.81135937	220	5	1.1	0.9;
	196	1	0	-0	0	12.48	0	1.01314867	-27.3987737	220	5	1.1	0.9;
	198	1	39.74	11.8	0	1.44	0	0.975286749	-17.2736827	220	5	1.1	0.9;
	207	1	321.98	84.4	0	1.34	0	1.0006671	-14.3980276	220	5	1.1	0.9;
	216	1	155.6	54.7	0	2.21	0	1.03936156	-25.04767	220	5	1.1	0.9;
	217	1	105.2	0.1	0	7.36	0	1.02457055	-2.86356206	220	5	1.1	0.9;
	218	1	69.83	15.12	0	2.23	0	1.01094437	-13.4875925	220	5	1.1	0.9;
	221	2	0	0	0	0	0	0.984682	-16.3637257	380	5	1.1	0.9;
	225	1	0	0	0	1.15	0	1.00002936	-20.9994618	220	5	1.1	0.9;
	280	1	119.6	29.6	0	5.34	0	1.01779006	-11.3690374	220	5	1.1	0.9;
	283	1	27.33	11.9	0	1.17	0	1.01297372	-13.0499229	220	5	1.1	0.9;
	292	1	13.82	1.4	0	0.7	0	1.01625527	-14.9925304	220	5	1.1	0.9;
	305	1	103	12	0	0.63	0	1.02646283	-33.3404194	220	5	1.1	0.9;
	306	1	-0	0	0	4.76	0	0.97233696	-19.5574102	220	5	1.1	0.9;
	314	1	163.1	46.3	0	10.6	0	0.946333886	-17.0171285	220	5	1.1	0.9;
	333	1	524.5	43	0	6.85	0	0.979254316	-43.5605703	220	5	1.1	0.9;
	338	2	0	0	0	0	0	1.048249	-6.43611197	220	5	1.1	0.9;
	346	1	197.5	48.3	0	0.71	0	1.02500124	-21.6371641	220	5	1.1	0.9;
	350	1	110.4	26.2	0	5.62	0	1.03350155	-24.8614635	220	5	1.1	0.9;
	352	2	0	0	0	0	0	1.055378	0.0601130161	380	5	1.1	0.9;
	367	1	65.17	-51.5	0	4.85	0	1.01248017	-24.3599181	220	5	1.1	0.9;
	401	1	56.5	36.29	0	3.08	0	1.02654574	-14.5919657	220	5	1.1	0.9;
	408	1	129.1	7.4	0	0.04	0	1.03979036	-12.8037611	220	5	1.1	0.9;
	410	1	170.89	50.38	0	6.44	0	1.0043541	-26.9336679	220	5	1.1	0.9;
	413	2	0	0	0	0	0	1.05013	-6.67754263	220	5	1.1	0.9;
	416	1	70.68	13.5	0	6.96	0	1.04529536	-7.06799486	220	5	1.1	0.9;
	426	1	123.1	6.5	0	3.25	0	1.02519474	-18.6810477	220	5	1.1	0.9;
	432	1	-0	-0	0	68.517663	0	1.05353575	2.33796422	380	5	1.1	0.9;
	444	1	0	-0	0	2.45	0	1.00944294	-13.0747576	220	5	1.1	0.9;
	449	1	0	0	0	29.42	0	1.02325761	-8.60073617	380	5	1.1	0.9;
	453	2	0	0	0	0	0	1.018914	-7.82740181	380	5	1.1	0.9;
	455	1	274.32	5.66	0	13.24	0	0.991438435	-31.9020927	220	5	1.1	0.9;
	490	1	20.52	4	0	2.77	0	1.03645157	-23.582812	220	5	1.1	0.9;
	500	1	144.4	35.5	0	7.66	0	1.03455914	-15.4682749	220	5	1.1	0.9;
	502	1	-0	0	0	1.96	0	1.04356442	-6.79146874	220	5	1.1	0.9;
	506	1	-0	0	0	0.4	0	1.06329479	-9.15991627	380	5	1.1	0.9;
	513	1	57.46	17.1	0	1.61	0	1.03824126	-7.55309845	220	5	1.1	0.9;
	516	2	0	0	0	0	0	1.075592	-33.768882	220	5	1.1	0.9;
	520	1	118.5	20.4	0	2.57	0	1.04398589	-27.5871481	220	5	1.1	0.9;
	549	1	0	-0	0	5.15	0	1.06264581	-10.6579599	220	5	1.1	0.9;
	554	1	0	-0	0	1.97	0	0.975488721	-21.538828	220	5	1.1	0.9;
	556	1	16.52	9	0	1.17	0	1.03371618	-23.2972528	220	5	1.1	0.9;
	561	1	0	-0	0	0.32	0	1.05400159	-11.2612918	220	5	1.1	0.9;
	564	2	0	0	0	0	0	1.069817	-47.4407846	220	5	1.1	0.9;
	575	1	0	-0	0	0.67	0	1.0162455	-12.0527819	220	5	1.1	0.9;
	583	2	0	0	0	0	0	1.045397	-15.8635752	220	5	1.1	0.9;
	594	1	67.57	17	0	5.75	0	1.03446782	-8.937793	220	5	1.1	0.9;
	601	1	140.6	42.6	0	5.71	0	1.03140531	-14.7902131	220	5	1.1	0.9;
	604	1	33.24	4.4	0	24.54	0	1.0065163	-13.0995495	380	5	1.1	0.9;
	608	1	150.9	10.4	0	4.77	0	1.02756236	-33.0625561	220	5	1.1	0.9;
	609	1	-0	-0	0	5.67	0	1.01372253	-15.2240574	220	5	1.1	0.9;
	615	2	0	0	0	0	0	1.063876	-10.9185828	220	5	1.1	0.9;
	616	2	0	0	0	0	0	1.048713	-13.4277223	220	5	1.1	0.9;
	619	1	72.88	14.4	0	2.96	0	0.989415458	-26.007598	220	5	1.1	0.9;
	639	2	0	0	0	0	0	1.051376	-30.2452235	220	5	1.1	0.9;
	641	1	45.32	18.5	0	0.74	0	1.03515015	-14.0185745	220	5	1.1	0.9;
	658	1	258.4	66.7	0	5.87	0	1.01967309	-17.6556191	220	5	1.1	0.9;
	661	1	-0	-0	0	0.6	0	1.04013468	2.33204316	380	5	1.1	0.9;
	666	1	-5.61	-2.79	0	150.93	0	1.03589281	-5.5037709	380	5	1.1	0.9;
	678	1	232.1	89.8	0	0.09	0	0.986375398	-18.3781286	220	5	1.1	0.9;
	682	2	0	0	0	0	0	1.0691	-9.9994886	220	5	1.1	0.9;
	687	1	-0	0	0	5.6	0	1.00954364	-4.07696821	220	5	1.1	0.9;
	707	1	83.99	21.2	0	5.36	0	1.04793911	-25.995446	220	5	1.1	0.9;
	718	1	135.11	41	0	5.31	0	1.0252812	-25.3114761	220	5	1.1	0.9;
	720	1	-0	-0	0	23.554121	0	1.02991977	-26.8064113	380	5	1.1	0.9;
	726	1	400.3	189.9	0	0.53	0	0.999725526	-5.02661662	220	5	1.1	0.9;
	742	1	0	-0	0	2.83	0	1.00970563	-4.07847642	220	5	1.1	0.9;
	747	1	69.58	16	0	3.03	0	1.01220284	-27.467184	220	5	1.1	0.9;
	749	2	0	0	0	0	0	1.057884	-29.3517278	220	5	1.1	0.9;
	750	1	-0	-0	0	18.63	0	1.04114095	-24.9019207	220	5	1.1	0.9;
	757	2	0	0	0	0	0	1.017567	-13.8213187	380	5	1.1	0.9;
	766	1	-0	0	0	7.85	0	1.01731297	-21.0023989	220	5	1.1	0.9;
	769	1	152.57	40	0	6.12	0	1.0234853	-11.1388043	220	5	1.1	0.9;
	772	1	343.9	141.9	0	5.55	0	1.01854677	-14.5484209	220	5	1.1	0.9;
	776	2	0	0	0	0	0	1.026368	-14.0138591	220	5	1.1	0.9;
	778	2	0	0	0	0	0	1.049411	-6.95452622	220	5	1.1	0.9;
	789	1	-0	-0	0	6.63	0	1.04723805	-6.30665147	220	5	1.1	0.9;
	795	2	0	0	0	0	0	1.035522	-15.6472629	220	5	1.1	0.9;
	800	1	50.56	18	0	0.11	0	1.01253822	-13.0853845	220	5	1.1	0.9;
	803	2	0	0	0	0	0	1.041369	-25.2507164	220	5	1.1	0.9;
	804	1	-0	-0	0	7.26	0	1.02628661	-7.8114981	220	5	1.1	0.9;
	805	1	124.5	29.6	0	15.4	0	1.01904955	-11.3771343	220	5	1.1	0.9;
	809	1	0	-0	0	58.088687	0	1.02907307	-0.105993822	380	5	1.1	0.9;
	819	1	0	-0	0	0.22	0	1.05216855	-0.876209159	220	5	1.1	0.9;
	823	2	0	0	0	0	0	1.044097	-2.399183	380	5	1.1	0.9;
	839	1	-0	-0	0	8.17514	0	1.02703038	-1.42930585	380	5	1.1	0.9;
	851	2	0	0	0	0	0	1.00025	-17.1550545	220	5	1.1	0.9;
	858	2	0	0	0	0	0	1.031745	1.1063878	380	5	1.1	0.9;
	870	1	110	3.4	0	11.95	0	1.04076141	-25.0591745	220	5	1.1	0.9;
	871	1	108.89	-21.76	0	3.72	0	1.05469995	-12.1590719	220	5	1.1	0.9;
	883	1	192.5	78.3	0	6.65	0	1.00430866	-10.3754749	220	5	1.1	0.9;
	891	2	0	0	0	0	0	1.064525	-19.0207374	380	5	1.1	0.9;
	892	1	-0	-0	0	9.1	0	1.06832567	-35.2888118	220	5	1.1	0.9;
	900	1	0	0	0	0.15	0	1.04615348	-15.675442	220	5	1.1	0.9;
	903	1	82.69	20.1	0	1.36	0	1.01215986	-27.4957223	220	5	1.1	0.9;
	905	1	631.71	-54.16	0	7.534129	0	1.03836297	-15.1067914	380	5	1.1	0.9;
	907	1	-0	-0	0	0.05	0	1.0385547	-10.0849783	220	5	1.1	0.9;
	908	1	125.9	-0.5	0	0.21	0	1.06521441	-8.14483134	220	5	1.1	0.9;
	920	1	34.44	8.5	0	1.11	0	1.02992544	-21.09252	220	5	1.1	0.9;
	923	1	62.07	14.7	0	4.84	0	1.03456067	-23.6464143	220	5	1.1	0.9;
	933	1	-0	0	0	22.75	0	1.01686066	-21.7095029	220	5	1.1	0.9;
	935	1	-0	0	0	9.46	0	0.992390465	-25.1362828	220	5	1.1	0.9;
	953	1	108.7	-12.15	0	37.11	0	1.07198601	-13.1980979	380	5	1.1	0.9;
	954	1	66.27	13.6	0	0.67	0	1.03051134	-21.8883203	220	5	1.1	0.9;
	960	1	-0	-0	0	108.728602	0	1.06329347	-9.15991168	380	5	1.1	0.9;
	964	1	88.5	16.5	0	146.44	0	1.01963574	-11.7477116	380	5	1.1	0.9;
	972	2	0	0	0	0	0	1.072621	5.20876405	380	5	1.3	0.7;
	980	1	14.71	4.6	0	7.88	0	0.989904953	-25.8810284	220	5	1.1	0.9;
	1001	2	0	0	0	0	0	1.074143	-33.9373576	220	5	1.1	0.9;
	1002	2	0	0	0	0	0	1.041506	-20.4387142	220	5	1.1	0.9;
	1005	1	0	0	0	0.81	0	1.05395532	-12.7064025	220	5	1.1	0.9;
	1015	1	44.55	0	0	4.78	0	1.05627859	-5.7990371	220	5	1.1	0.9;
	1026	1	201.4	53	0	9.67	0	1.00769364	-29.7855815	220	5	1.1	0.9;
	1027	1	-5.91	-2.33	0	30.393595	0	1.00805603	-18.248815	380	5	1.1	0.9;
	1033	1	26.33	5.3	0	4.31	0	1.04093388	-24.9790288	220	5	1.1	0.9;
	1035	1	382.5	57.9	0	8.16	0	1.02711572	-33.219204	220	5	1.1	0.9;
	1039	1	34.64	-0	0	0.91	0	1.03320774	-19.7443773	220	5	1.1	0.9;
	1040	1	31.94	8.8	0	3.79	0	1.03891314	-9.34500975	220	5	1.1	0.9;
	1043	2	0	0	0	0	0	1.028946	-3.7129397	380	5	1.1	0.9;
	1051	1	-0	0	0	3.79	0	1.04162631	-13.1587828	220	5	1.1	0.9;
	1077	1	-0	0	0	0.1	0	1.01297524	-13.0499441	220	5	1.1	0.9;
	1078	1	-0	-0	0	4.74	0	1.06150956	-3.87500643	220	5	1.1	0.9;
	1081	1	277.86	58.95	0	182.880644	0	1.04087573	-10.5964126	380	5	1.1	0.9;
	1083	2	0	0	0	0	0	1.049472	-9.01395522	220	5	1.1	0.9;
	1090	1	56.06	18.7	0	4.24	0	0.950576209	-22.7842341	220	5	1.1	0.9;
	1093	2	0	0	0	0	0	1.027056	-8.58664297	380	5	1.1	0.9;
	1096	1	0	-0	0	0.16	0	1.05018892	-1.27203039	220	5	1.1	0.9;
	1100	2	0	0	0	0	0	1.042801	-4.55705734	220	5	1.1	0.9;
	1101	1	-0	-0	0	2.05	0	1.03350878	-14.7452674	220	5	1.1	0.9;
	1102	2	0	0	0	0	0	1.049879	-6.71303037	220	5	1.1	0.9;
	1105	1	29.83	7.3	0	6.49	0	1.01307541	-27.4054987	220	5	1.1	0.9;
	1111	1	0	0	0	1.1	0	1.0346078	-8.93970355	220	5	1.1	0.9;
	1129	1	190.47	55.03	0	6.7	0	0.943308091	-23.7337991	220	5	1.1	0.9;
	1136	1	16.22	2	0	0.71	0	0.987053774	-19.0596756	220	5	1.1	0.9;
	1137	1	-0	-0	0	0.05	0	0.991812078	-25.0889456	220	5	1.1	0.9;
	1146	1	32.84	-0	0	1.41	0	1.02607516	-5.94016788	220	5	1.1	0.9;
	1151	1	-0	-0	0	18.82	0	1.03376883	-20.9273579	220	5	1.1	0.9;
	1153	1	12.41	3.9	0	2.23	0	1.03305112	-6.1411302	220	5	1.1	0.9;
	1156	1	65.67	24	0	9.95	0	1.02868767	-22.9766051	220	5	1.1	0.9;
	1159	1	112.4	13	0	3.99	0	1.03605779	-36.7177038	220	5	1.1	0.9;
	1172	1	-0	-0	0	2.3	0	1.01346602	-26.5461351	220	5	1.1	0.9;
	1179	1	86.6	23.4	0	0.39	0	1.02266996	-3.06964296	220	5	1.1	0.9;
	1183	1	199.4	-19.9	0	6.68	0	1.02928934	-33.468521	220	5	1.1	0.9;
	1187	1	67.57	21.2	0	5.71	0	1.03428541	-5.26227145	220	5	1.1	0.9;
	1188	1	30.93	6.6	0	9.09	0	1.04869303	-14.478877	220	5	1.1	0.9;
	1194	1	129.6	13.3	0	13.98	0	1.03976367	-15.1967776	380	5	1.1	0.9;
	1198	1	0	0	0	30.637696	0	1.01624157	-14.6251955	380	5	1.1	0.9;
	1201	1	114.1	23.5	0	1.08	0	0.984896835	-20.1262458	220	5	1.1	0.9;
	1216	1	0	0	0	4.93	0	1.04030384	-11.3155181	220	5	1.1	0.9;
	1233	1	0	-0	0	1.72	0	1.02872875	-23.0027547	220	5	1.1	0.9;
	1234	1	71.78	17.9	0	1.96	0	1.00452166	-16.7127987	220	5	1.1	0.9;
	1237	2	0	0	0	0	0	1.108028	-6.49628621	380	5	1.3	0.7;
	1248	1	0	0	0	1.17	0	0.995547154	-10.8550718	220	5	1.1	0.9;
	1249	1	348.93	26.47	0	9.36	0	1.0263131	-11.3022538	380	5	1.1	0.9;
	1251	2	0	0	0	0	0	1.027102	-8.5957133	380	5	1.1	0.9;
	1262	1	-0	0	0	10.73	0	1.0289549	-22.5129405	220	5	1.1	0.9;
	1265	1	173	-21.3	0	5.93	0	1.05217387	-50.2207305	220	5	1.1	0.9;
	1275	1	52.46	2.9	0	0.35	0	1.00883757	-19.2356947	220	5	1.1	0.9;
	1295	2	0	0	0	0	0	1.03682	-8.91706827	220	5	1.1	0.9;
	1301	1	479	99.2	0	10.68	0	1.00479301	-29.4279889	220	5	1.1	0.9;
	1305	1	-0	-0	0	4.34	0	1.03816422	-22.8739746	220	5	1.1	0.9;
	1311	1	37.94	15.2	0	35.31	0	1.04877586	-21.7784969	380	5	1.1	0.9;
	1326	1	0	0	0	0.98	0	1.06847521	-35.2898064	220	5	1.1	0.9;
	1334	1	0	0	0	0.59	0	1.00715202	-16.4840645	220	5	1.1	0.9;
	1341	2	0	0	0	0	0	1.032899	-14.7411176	220	5	1.1	0.9;
	1343	1	-0	-0	0	58.3	0	1.0198766	-14.1984246	380	5	1.1	0.9;
	1354	2	0	0	0	0	0	1.041045	-7.48954698	220	5	1.1	0.9;
	1355	1	-3.29	-1.32	0	190.704588	0	1.03654824	-8.63657621	380	5	1.1	0.9;
	1364	1	40.85	14.5	0	0.59	0	0.993231007	-12.3431691	220	5	1.1	0.9;
	1380	1	145.2	21.4	0	1.09	0	0.969710518	-23.4191378	220	5	1.1	0.9;
	1394	1	30.93	7.6	0	4.69	0	1.01299607	-27.392767	220	5	1.1	0.9;
	1397	1	0	-0	0	2.14	0	1.03789856	-13.1503583	220	5	1.1	0.9;
	1398	1	196.7	44.2	0	0.1	0	0.999008657	-19.4576005	220	5	1.1	0.9;
	1401	1	11.91	2.9	0	5.27	0	1.00613994	-14.9810897	220	5	1.1	0.9;
...
];

%% generator data
%	bus	Pg	Qg	Qmax	Qmin	Vg	mBase	status	Pmax	Pmin	Pc1	Pc2	Qc1min	Qc1max	Qc2min	Qc2max	ramp_agc	ramp_10	ramp_30	ramp_q	apf
mpc.gen = [
	124	861.3	85.7082048	440.32	-172.59	1.081537	100	1	1000	333.33	0	0	0	0	0	0	0	0	0	0	0;
	150	67.29	-2.02096364	77.09	-22.54	1.062805	100	1	160	0	0	0	0	0	0	0	0	0	0	0	0;
	221	-155.39	34.3185735	183.92	-65.3	0.984682	100	1	100	-207.18	0	0	0	0	0	0	0	0	0	0	0;
	338	83.7	2.69205967	55.54	-19.16	1.048249	100	1	120	0	0	0	0	0	0	0	0	0	0	0	0;
	352	1250.4	233.530501	926.35	-297.68	1.055378	100	1	2000	666.67	0	0	0	0	0	0	0	0	0	0	0;
	413	231	26.2905139	124.12	-49.84	1.05013	100	1	280	0	0	0	0	0	0	0	0	0	0	0	0;
	453	260.1	-0.56435582	257.23	-74.4	1.018914	100	1	540	0	0	0	0	0	0	0	0	0	0	0	0;
	516	539.4	190.458909	261.79	-106.67	1.075592	100	1	600	200	0	0	0	0	0	0	0	0	0	0	0;
	564	-51.67	97.1902162	18.47	-19.35	1.069817	100	1	100	-68.89	0	0	0	0	0	0	0	0	0	0	0;
	583	-270	79.4378147	17.88	-7.03	1.045397	100	1	100	-360	0	0	0	0	0	0	0	0	0	0	0;
	615	38.2	0.370945883	17.09	-7.79	1.063876	100	1	40	0	0	0	0	0	0	0	0	0	0	0	0;
	616	379.2	196.035401	217.9	-81.16	1.048713	100	1	480	160	0	0	0	0	0	0	0	0	0	0	0;
	639	-46.2	318.488179	135.52	-38.9	1.051376	100	1	100	-61.6	0	0	0	0	0	0	0	0	0	0	0;
	682	37.4	9.00099544	38.77	-11.06	1.0691	100	1	80	0	0	0	0	0	0	0	0	0	0	0	0;
	749	198.88	0.735277328	105.69	-43.84	1.057884	100	1	240	0	0	0	0	0	0	0	0	0	0	0	0;
	757	116.7	-129.174743	51.3	-23.41	1.017567	100	1	120	0	0	0	0	0	0	0	0	0	0	0	0;
	776	-111.4	97.9187416	18.16	-6.73	1.026368	100	1	100	-148.53	0	0	0	0	0	0	0	0	0	0	0;
	778	16.5	4.7896668	12.37	-9.36	1.049411	100	1	33.58	0	0	0	0	0	0	0	0	0	0	0	0;
	795	58.4	35.9049986	36.75	-13.04	1.035522	100	1	80	0	0	0	0	0	0	0	0	0	0	0	0;
	803	-89.2	27.2606336	74.03	-25.54	1.041369	100	1	100	-118.93	0	0	0	0	0	0	0	0	0	0	0;
	823	1274.2	239.557364	926.68	-298.31	1.044097	100	1	2000	666.67	0	0	0	0	0	0	0	0	0	0	0;
	851	59.56	52.3533848	96.64	-27.81	1.00025	100	1	200	0	0	0	0	0	0	0	0	0	0	0	0;
	858	855.6	150.352068	440.67	-172.15	1.031745	100	1	1000	333.33	0	0	0	0	0	0	0	0	0	0	0;
	891	1702.8	530.178944	1097.41	-373.91	1.064525	100	1	2400	800	0	0	0	0	0	0	0	0	0	0	0;
	972	1221.2	336.586434	934.73	-291.52	1.072621	100	1	2000	666.67	0	0	0	0	0	0	0	0	0	0	0;
	1001	92.1	234.836335	55.02	-19.81	1.074143	100	1	120	0	0	0	0	0	0	0	0	0	0	0	0;
	1002	171	165.569667	89.55	-35.15	1.041506	100	1	200	0	0	0	0	0	0	0	0	0	0	0	0;
	1043	829.5	49.2039376	387.88	-163.4	1.028946	100	1	900	300	0	0	0	0	0	0	0	0	0	0	0;
	1083	91.8	111.60172	54.91	-19.88	1.049472	100	1	120	0	0	0	0	0	0	0	0	0	0	0	0;
	1093	837	18.3541683	550.69	-185.15	1.027056	100	1	1200	400	0	0	0	0	0	0	0	0	0	0	0;
	1100	58.2	5.92889364	36.8	-13.01	1.042801	100	1	80	0	0	0	0	0	0	0	0	0	0	0	0;
	1102	-124.15	17.84747	38.05	-11.59	1.049879	100	1	100	-165.54	0	0	0	0	0	0	0	0	0	0	0;
	1237	1504.8	306.810157	906.61	-319.44	1.108028	100	1	2000	666.67	0	0	0	0	0	0	0	0	0	0	0;
	1251	837	10.2255258	550.69	-185.15	1.027102	100	1	1200	400	0	0	0	0	0	0	0	0	0	0	0;
	1295	-124.1	5.58842958	36.92	-12.88	1.03682	100	1	100	-165.47	0	0	0	0	0	0	0	0	0	0	0;
	1341	67.2	103.336161	57.03	-17.62	1.032899	100	1	120	0	0	0	0	0	0	0	0	0	0	0	0;
	1354	-246.5	17.8383057	38.08	-11.73	1.041045	100	1	100	-328.67	0	0	0	0	0	0	0	0	0	0	0;
	1422	-101	48.9727954	18.09	-6.79	1.04353	100	1	100	-134.67	0	0	0	0	0	0	0	0	0	0	0;
	1436	49.4	12.7783141	37.72	-12.09	1.047684	100	1	80	0	0	0	0	0	0	0	0	0	0	0	0;
	1478	62.6	10.0959919	36.4	-13.44	1.048068	100	1	80	0	0	0	0	0	0	0	0	0	0	0	0;
	1604	50.6	14.0265703	37.66	-12.17	1.043862	100	1	80	0	0	0	0	0	0	0	0	0	0	0	0;
	1642	50.4	-185.141535	37.74	-12.11	1.028554	100	1	80	0	0	0	0	0	0	0	0	0	0	0	0;
	1680	1250.4	225.591284	928.89	-296.1	1.04395	100	1	2000	666.67	0	0	0	0	0	0	0	0	0	0	0;
	1708	860.8	99.200642	439.37	-173.3	1.037938	100	1	1000	333.33	0	0	0	0	0	0	0	0	0	0	0;
	1721	28.1	2.88566455	18.52	-6.39	1.062238	100	1	40	0	0	0	0	0	0	0	0	0	0	0	0;
	1754	40	38.2267064	16.99	-7.92	1.04286	100	1	41.06	0	0	0	0	0	0	0	0	0	0	0	0;
	1794	1250.4	204.707445	926.35	-297.68	1.05295	100	1	2000	666.67	0	0	0	0	0	0	0	0	0	0	0;
	1808	-0.6	-4.61349297	111.23	-38.16	1.046224	100	1	100	-0.8	0	0	0	0	0	0	0	0	0	0	0;
	1851	15.6	7.69942934	11.76	-8.89	1.04762	100	1	31.92	0	0	0	0	0	0	0	0	0	0	0	0;
	1852	-241.8	92.1181781	58.16	-16.52	1.054325	100	1	100	-322.4	0	0	0	0	0	0	0	0	0	0	0;
	1888	573.68	248.590689	396.02	-155.83	1.039377	100	1	912.78	312.78	0	0	0	0	0	0	0	0	0	0	0;
	1914	115.5	-45.0146169	160.36	-150.95	1.035636	100	1	472.16	39.35	0	0	0	0	0	0	0	0	0	0	0;
	1959	31	1.12819635	18.14	-6.75	1.064692	100	1	40	0	0	0	0	0	0	0	0	0	0	0	0;
	2035	855.6	56.0356213	441.85	-171.27	1.03088	100	1	1000	333.33	0	0	0	0	0	0	0	0	0	0	0;
	2050	836.2	-348.62136	962.2	-263.65	1.009914	100	1	2000	666.67	0	0	0	0	0	0	0	0	0	0	0;
	2085	176	12.154432	88.39	-36.19	1.040351	100	1	200	0	0	0	0	0	0	0	0	0	0	0	0;
	2177	-121.3	458.927554	58.35	-16.26	1.07333	100	1	100	-161.73	0	0	0	0	0	0	0	0	0	0	0;
	2197	-53.29	-7.92964079	19.51	-14.74	1.035528	100	1	100	-71.05	0	0	0	0	0	0	0	0	0	0	0;
	2276	38.9	-20.9906138	41.67	-36.5	1.05324	100	1	119.3	0	0	0	0	0	0	0	0	0	0	0	0;
	2291	110.5	81.803476	95.69	-28.93	1.072528	100	1	200	0	0	0	0	0	0	0	0	0	0	0	0;
	2359	78.2	-65.589309	34.35	-15.5	1.024884	100	1	80	0	0	0	0	0	0	0	0	0	0	0	0;
	2421	-320.4	560.328966	37.39	-12.45	1.047766	100	1	100	-427.2	0	0	0	0	0	0	0	0	0	0	0;
	2425	-100.5	100.77637	54.3	-20.49	1.041186	100	1	100	-134	0	0	0	0	0	0	0	0	0	0	0;
	2426	-43.2	376.467596	105.34	-99.02	1.037687	100	1	100	-57.6	0	0	0	0	0	0	0	0	0	0	0;
	2446	1367	297.143488	921.62	-304.73	1.06157	100	1	2000	666.67	0	0	0	0	0	0	0	0	0	0	0;
	2468	46.8	5.35891752	38.02	-11.81	1.048132	100	1	80	0	0	0	0	0	0	0	0	0	0	0	0;
	2481	31.8	14.5125441	39.12	-10.71	1.042777	100	1	80	0	0	0	0	0	0	0	0	0	0	0	0;
	2489	286.5	7.31587655	162.4	-61.79	1.049366	100	1	360	0	0	0	0	0	0	0	0	0	0	0	0;
	2550	54.3	4.34898631	58.23	-16.49	1.049384	100	1	120	0	0	0	0	0	0	0	0	0	0	0	0;
	2600	76.48	17.1620868	76.08	-23.59	1.038821	100	1	160	0	0	0	0	0	0	0	0	0	0	0	0;
	2627	1367	307.303519	921.52	-304.79	1.061488	100	1	2000	666.67	0	0	0	0	0	0	0	0	0	0	0;
	2653	41.92	457.160027	51.94	-22.8	1.036517	100	1	120	0	0	0	0	0	0	0	0	0	0	0	0;
	2719	77.6	63.4445992	70.15	-58.1	1.035384	100	1	196.72	0	0	0	0	0	0	0	0	0	0	0	0;
	2786	1221.2	375.847399	934.81	-291.47	1.073795	100	1	2000	666.67	0	0	0	0	0	0	0	0	0	0	0;
	2797	-95.1	54.8889531	88.33	-36.33	1.042226	100	1	100	-126.8	0	0	0	0	0	0	0	0	0	0	0;
	2799	66.8	-1.218749	77.91	-21.66	1.05396	100	1	160	0	0	0	0	0	0	0	0	0	0	0	0;
	2816	1250.4	218.788498	926.26	-297.74	1.053944	100	1	2000	666.67	0	0	0	0	0	0	0	0	0	0	0;
	2841	80.7	-2.76078809	55.98	-18.76	1.08248	100	1	120	0	0	0	0	0	0	0	0	0	0	0	0;
	2842	31.6	5.82957932	18.19	-6.74	1.043712	100	1	40	0	0	0	0	0	0	0	0	0	0	0	0;
	2872	4.5	6.62445386	3.31	-2.54	1.063841	100	1	9.05	0	0	0	0	0	0	0	0	0	0	0	0;
	2878	8.95	12.086653	72.95	-68.71	1.057626	100	1	214.86	0	0	0	0	0	0	0	0	0	0	0	0;
	2886	60.9	13.0783421	57.69	-17.02	1.055151	100	1	120	0	0	0	0	0	0	0	0	0	0	0	0;
	2902	20.9	1.16174948	19.19	-5.72	1.059072	100	1	40	0	0	0	0	0	0	0	0	0	0	0	0;
	2930	53.2	10.4140257	37.24	-12.54	1.047695	100	1	80	0	0	0	0	0	0	0	0	0	0	0	0;
	2934	3.4	0.108232939	2.51	-1.91	1.051149	100	1	6.83	0	0	0	0	0	0	0	0	0	0	0	0;
	2985	46.6	-57.3077387	184.46	-132.67	1.053607	100	1	493.35	0	0	0	0	0	0	0	0	0	0	0	0;
	3018	162.5	-4.40602944	89.61	-34.82	1.041705	100	1	200	0	0	0	0	0	0	0	0	0	0	0	0;
	3028	855.7	40.201223	441.85	-171.27	1.030654	100	1	1000	333.33	0	0	0	0	0	0	0	0	0	0	0;
	3114	38.6	4.85743736	17.33	-7.61	1.071964	100	1	40	0	0	0	0	0	0	0	0	0	0	0	0;
	3133	85.54	11.4769884	113.97	-35.56	1.065372	100	1	240	0	0	0	0	0	0	0	0	0	0	0	0;
	3134	-136.3	-5.99810592	70.25	-29.33	1.023117	100	1	100	-181.73	0	0	0	0	0	0	0	0	0	0	0;
	3183	98.7	-2.68744793	53.7	-20.98	1.055515	100	1	120	0	0	0	0	0	0	0	0	0	0	0	0;
	3205	416.7	-92.946772	243.61	-88.46	1.041982	100	1	540	0	0	0	0	0	0	0	0	0	0	0	0;
	3218	-107.4	28.797734	36.79	-13	1.028507	100	1	100	-143.2	0	0	0	0	0	0	0	0	0	0	0;
	3240	-42.3	91.088626	62.23	-51.37	1.050305	100	1	100	-56.4	0	0	0	0	0	0	0	0	0	0	0;
	3306	861.3	174.138581	439.2	-173.43	1.071978	100	1	1000	333.33	0	0	0	0	0	0	0	0	0	0	0;
	3324	-26.48	29.7349901	38.13	-11.64	1.014126	100	1	100	-35.3	0	0	0	0	0	0	0	0	0	0	0;
	3346	56.8	-3.00406622	37.1	-12.76	1.01594	100	1	80	0	0	0	0	0	0	0	0	0	0	0	0;
	3353	19.07	6.16729921	38.2	-11.61	1.045739	100	1	80	0	0	0	0	0	0	0	0	0	0	0	0;
	3364	44.5	-21.9976988	47.19	-41.44	1.0538	100	1	135.27	0	0	0	0	0	0	0	0	0	0	0	0;
	3390	2.4	367.809857	54.59	-20.19	1.039984	100	1	120	0	0	0	0	0	0	0	0	0	0	0	0;
	3422	53.7	-3.15788188	58.19	-16.5	1.063657	100	1	120	0	0	0	0	0	0	0	0	0	0	0	0;
	3436	521	447.620009	550.97	-184.89	1.060777	100	1	1200	400	0	0	0	0	0	0	0	0	0	0	0;
	3492	-370.8	44.6475225	53.75	-21.08	1.04852	100	1	100	-494.4	0	0	0	0	0	0	0	0	0	0	0;
	3513	829.8	-152.312486	387.88	-163.4	1.028771	100	1	900	300	0	0	0	0	0	0	0	0	0	0	0;
	3565	15.88	6.4246181	38.83	-10.97	1.081614	100	1	80	0	0	0	0	0	0	0	0	0	0	0	0;
	3580	539	189.226835	261.7	-107.36	1.07602	100	1	600	0	0	0	0	0	0	0	0	0	0	0	0;
	3611	-125.4	15.2200821	54.59	-20.12	1.03905	100	1	100	-167.2	0	0	0	0	0	0	0	0	0	0	0;
	3656	-26.2	151.038014	116.07	-33.32	1.070983	100	1	100	-34.93	0	0	0	0	0	0	0	0	0	0	0;
	3661	861.2	56.7014262	441.04	-172.05	1.059676	100	1	1000	333.33	0	0	0	0	0	0	0	0	0	0	0;
	3698	-12.58	26.2479784	36.34	-13.47	1.041813	100	1	100	-16.78	0	0	0	0	0	0	0	0	0	0	0;
	3741	854.7	99.4927658	548.57	-187.16	1.031629	100	1	1200	400	0	0	0	0	0	0	0	0	0	0	0;
	3809	257	137.353586	313.01	-116.73	1.084785	100	1	700	233.33	0	0	0	0	0	0	0	0	0	0	0;
	3825	837.3	-18.3861851	388.17	-163.4	1.026994	100	1	900	300	0	0	0	0	0	0	0	0	0	0	0;
	3869	855.6	150.486409	440.69	-172.14	1.031907	100	1	1000	333.33	0	0	0	0	0	0	0	0	0	0	0;
	3876	-25.1	243.061879	34.27	-15.52	1.044501	100	1	100	-33.47	0	0	0	0	0	0	0	0	0	0	0;
	3916	-21.27	491.915544	38.02	-11.77	1.043758	100	1	100	-28.37	0	0	0	0	0	0	0	0	0	0	0;
	3951	-27.1	-72.7972227	126.16	-127.56	1.027439	100	1	100	-36.13	0	0	0	0	0	0	0	0	0	0	0;
	3971	-134.5	10.0164622	55.67	-19.09	1.063145	100	1	100	-179.33	0	0	0	0	0	0	0	0	0	0	0;
	4024	89.5	21.0274006	97.07	-27.44	1.040328	100	1	200	0	0	0	0	0	0	0	0	0	0	0	0;
	4056	-76.9	3.77338606	38.05	-11.77	1.038526	100	1	100	-102.53	0	0	0	0	0	0	0	0	0	0	0;
	4084	366.1	201.127647	264.94	-103.74	1.063234	100	1	600	0	0	0	0	0	0	0	0	0	0	0	0;
	4118	41	12.6831425	38.37	-11.4	1.027195	100	1	80	0	0	0	0	0	0	0	0	0	0	0	0;
	4125	59.6	-19.4915719	36.89	-13	1.003502	100	1	80	0	0	0	0	0	0	0	0	0	0	0	0;
	4128	67.5	24.1579208	57.03	-17.63	1.019761	100	1	120	0	0	0	0	0	0	0	0	0	0	0	0;
	4231	2640.42424	570.07408	Inf	-Inf	1.049182	100	1	4188.95	1333.33	0	0	0	0	0	0	0	0	0	0	0;
	4331	60.2	6.92503953	36.73	-13.12	1.028646	100	1	80	0	0	0	0	0	0	0	0	0	0	0	0;
	4395	-129.1	95.4086179	38.48	-11.33	1.039834	100	1	100	-172.13	0	0	0	0	0	0	0	0	0	0	0;
	4419	861.3	54.7838472	441.04	-172.05	1.059565	100	1	1000	333.33	0	0	0	0	0	0	0	0	0	0	0;
	4480	861.3	174.839424	439.2	-173.43	1.071852	100	1	1000	333.33	0	0	0	0	0	0	0	0	0	0	0;
	4482	35.2	14.092682	38.85	-10.95	1.049914	100	1	80	0	0	0	0	0	0	0	0	0	0	0	0;
	4506	-171.8	175.551046	37.86	-11.95	1.036047	100	1	100	-229.07	0	0	0	0	0	0	0	0	0	0	0;
	4566	-30.39	146.017215	37.94	-11.87	1.073282	100	1	100	-40.51	0	0	0	0	0	0	0	0	0	0	0;
	4624	68	45.9042195	35.62	-14.19	1.042135	100	1	80	0	0	0	0	0	0	0	0	0	0	0	0;
	4661	-78.9	8.29487911	19.14	-5.77	1.049813	100	1	100	-105.2	0	0	0	0	0	0	0	0	0	0	0;
	4701	93.2	-37.6410231	98.4	-86.29	1.043063	100	1	281.85	0	0	0	0	0	0	0	0	0	0	0	0;
	4783	861.3	171.109352	439.2	-173.43	1.071981	100	1	1000	333.33	0	0	0	0	0	0	0	0	0	0	0;
	4816	-26.08	439.916103	38.37	-11.44	1.067305	100	1	100	-34.77	0	0	0	0	0	0	0	0	0	0	0;
	4819	855.6	152.240915	440.69	-172.14	1.031907	100	1	1000	333.33	0	0	0	0	0	0	0	0	0	0	0;
	4823	10.3	1.77087204	4.44	-2.07	1.067114	100	1	10.46	0	0	0	0	0	0	0	0	0	0	0	0;
	4850	88.8	15.1059994	76.52	-23.19	1.054975	100	1	160	0	0	0	0	0	0	0	0	0	0	0	0;
	4880	-40.3	7.55371242	75.62	-23.96	1.034991	100	1	100	-53.73	0	0	0	0	0	0	0	0	0	0	0;
	4918	41.69	596.493589	37.27	-12.57	1.057325	100	1	80	0	0	0	0	0	0	0	0	0	0	0	0;
	4952	-12.57	18.0973725	37.23	-12.61	1.045386	100	1	100	-16.77	0	0	0	0	0	0	0	0	0	0	0;
	5004	54.3	13.706244	74.73	-70.41	1.0663	100	1	220.12	0	0	0	0	0	0	0	0	0	0	0	0;
	5019	49.4	12.9456813	37.72	-12.09	1.047693	100	1	80	0	0	0	0	0	0	0	0	0	0	0	0;
	5051	83.48	6.97749413	74.55	-24.97	1.037373	100	1	160	0	0	0	0	0	0	0	0	0	0	0	0;
	5067	542	-277.821735	258.91	-109.58	1.021924	100	1	600	0	0	0	0	0	0	0	0	0	0	0	0;
	5110	-52.51	86.1712644	38.28	-11.5	1.032061	100	1	100	-70.01	0	0	0	0	0	0	0	0	0	0	0;
	5120	75.6	-3.90906638	56.35	-18.42	1.055539	100	1	120	0	0	0	0	0	0	0	0	0	0	0	0;
	5144	1713.6	99.8470542	882.86	-343.24	1.035201	100	1	2000	666.67	0	0	0	0	0	0	0	0	0	0	0;
	5237	106.8	118.254753	75.02	-24.74	1.052719	100	1	160	0	0	0	0	0	0	0	0	0	0	0	0;
	5278	119.4	2.15740205	51.3	-23.49	1.042037	100	1	120	0	0	0	0	0	0	0	0	0	0	0	0;
	5340	-159	130.065684	36.37	-13.43	1.054941	100	1	100	-212	0	0	0	0	0	0	0	0	0	0	0;
	5365	19.59	122.884534	18.14	-6.75	1.061754	100	1	40	0	0	0	0	0	0	0	0	0	0	0	0;
	5379	1250.6	301.167073	926.47	-297.63	1.107976	100	1	2000	666.67	0	0	0	0	0	0	0	0	0	0	0;
	5395	-395.8	263.073618	58.06	-16.66	1.048137	100	1	100	-527.73	0	0	0	0	0	0	0	0	0	0	0;
	5461	43.4	-174.031	38.26	-11.55	1.06213	100	1	80	0	0	0	0	0	0	0	0	0	0	0	0;
	5481	1368.6	148.039313	920.31	-305.64	1.063711	100	1	2000	666.67	0	0	0	0	0	0	0	0	0	0	0;
	5482	56.8	450.369963	101.32	-48.12	1.044486	100	1	249.06	0	0	0	0	0	0	0	0	0	0	0	0;
	5486	861.3	52.7691664	441.04	-172.05	1.059636	100	1	1000	333.33	0	0	0	0	0	0	0	0	0	0	0;
	5488	-96.4	100.878411	37.49	-12.33	1.041881	100	1	100	-128.53	0	0	0	0	0	0	0	0	0	0	0;
	5490	3424.8	311.67121	1765.36	-686.67	1.068845	100	1	4000	1333.33	0	0	0	0	0	0	0	0	0	0	0;
	5533	173	16.3128444	88.87	-35.71	1.038212	100	1	200	0	0	0	0	0	0	0	0	0	0	0	0;
	5546	21.5	2.58802377	19.16	-5.75	1.05378	100	1	40	0	0	0	0	0	0	0	0	0	0	0	0;
	5564	57.6	76.370007	36.8	-12.99	1.04123	100	1	80	0	0	0	0	0	0	0	0	0	0	0	0;
	5658	229.8	78.321327	103.18	-46.25	1.017689	100	1	240	0	0	0	0	0	0	0	0	0	0	0	0;
	5664	128	92.1366569	72.71	-27.05	1.070507	100	1	160	0	0	0	0	0	0	0	0	0	0	0	0;
	5709	837	4.29301569	550.69	-185.15	1.027078	100	1	1200	400	0	0	0	0	0	0	0	0	0	0	0;
	5781	1102.83	31.8900093	779.29	-324.79	1.0396	100	1	1800	600	0	0	0	0	0	0	0	0	0	0	0;
	5814	181.2	309.19288	196.98	-77.17	1.044051	100	1	440	146.67	0	0	0	0	0	0	0	0	0	0	0;
	5856	305.7	203.725247	214.13	-85	1.038417	100	1	480	160	0	0	0	0	0	0	0	0	0	0	0;
	5881	60	10.9334306	36.72	-13.13	1.065605	100	1	80	0	0	0	0	0	0	0	0	0	0	0	0;
	5940	-74.9	11.521527	17.21	-7.73	1.030075	100	1	100	-99.87	0	0	0	0	0	0	0	0	0	0	0;
	5971	1221.2	304.621778	934.54	-291.64	1.070056	100	1	2000	666.67	0	0	0	0	0	0	0	0	0	0	0;
	5983	-102.5	51.2360248	37.27	-12.59	1.066029	100	1	100	-136.67	0	0	0	0	0	0	0	0	0	0	0;
	5994	-87.3	36.2087626	60.51	-61.08	1.029184	100	1	100	-116.4	0	0	0	0	0	0	0	0	0	0	0;
	6036	820.2	-63.2564173	390.4	-161.16	1.043738	100	1	900	300	0	0	0	0	0	0	0	0	0	0	0;
	6153	94.3	-68.2212665	249.65	-261.82	0.988112	100	1	769.94	32.08	0	0	0	0	0	0	0	0	0	0	0;
	6168	26.3	1.68119293	19.86	-14.93	1.040343	100	1	53.76	0	0	0	0	0	0	0	0	0	0	0	0;
	6291	55.5	154.088273	58.12	-16.6	1.040598	100	1	120	0	0	0	0	0	0	0	0	0	0	0	0;
	6331	48.8	6.0677881	37.76	-12.05	1.052181	100	1	80	0	0	0	0	0	0	0	0	0	0	0	0;
	6332	96	-8.55142418	96.56	-27.95	1.062214	100	1	200	0	0	0	0	0	0	0	0	0	0	0	0;
	6351	22.08	18.6583519	38.29	-11.56	1.064446	100	1	80	0	0	0	0	0	0	0	0	0	0	0	0;
	6368	-145.3	26.1436192	51.11	-23.46	1.043835	100	1	100	-193.73	0	0	0	0	0	0	0	0	0	0	0;
	6376	-27.8	16.3899154	148.65	-50.73	1.046714	100	1	100	-37.07	0	0	0	0	0	0	0	0	0	0	0;
	6429	171	161.757779	88.83	-35.69	1.039574	100	1	200	0	0	0	0	0	0	0	0	0	0	0	0;
	6474	718.5	-3.83990743	438.72	-174.15	1.06557	100	1	1000	333.33	0	0	0	0	0	0	0	0	0	0	0;
	6516	228.2	98.0026202	126.73	-47.83	1.052452	100	1	280	0	0	0	0	0	0	0	0	0	0	0	0;
	6552	-204.2	467.717563	37.58	-12.16	1.048796	100	1	100	-272.27	0	0	0	0	0	0	0	0	0	0	0;
	6734	382.7	289.866787	311.52	-132.09	1.061492	100	1	720	0	0	0	0	0	0	0	0	0	0	0	0;
	6807	44.07	71.6002551	77.14	-22.46	1.006037	100	1	160	0	0	0	0	0	0	0	0	0	0	0	0;
	6816	16.53	4.63033171	77.35	-22.26	1.053803	100	1	160	0	0	0	0	0	0	0	0	0	0	0	0;
	6820	15.9	-0.292037141	11.99	-9.06	1.049557	100	1	32.53	0	0	0	0	0	0	0	0	0	0	0	0;
	6831	-57.5	8.34559601	35.62	-14.25	1.031347	100	1	100	-76.67	0	0	0	0	0	0	0	0	0	0	0;
	6845	102.9	18.2364781	53.24	-21.47	1.055216	100	1	120	0	0	0	0	0	0	0	0	0	0	0	0;
	6852	-344.9	32.9925851	18.56	-6.34	1.031296	100	1	100	-459.87	0	0	0	0	0	0	0	0	0	0	0;
	6857	2463.6	75.0521743	1865.83	-585.95	1.021411	100	1	4000	1333.33	0	0	0	0	0	0	0	0	0	0	0;
	6888	133	15.0706994	189.31	-59.87	1.039234	100	1	300	88.67	0	0	0	0	0	0	0	0	0	0	0;
	6947	227.5	6.10440601	126.09	-48.29	1.051367	100	1	280	0	0	0	0	0	0	0	0	0	0	0	0;
...
];

%% branch data
%	fbus	tbus	r	x	b	rateA	rateB	rateC	ratio	angle	status	angmin	angmax	Pf	Qf	Pt	Qt
mpc.branch = [
	7351	5441	0.00018	0.000781	0	0	0	0	1	0	1	-360	360	-61.6700	-16.2465	61.6768	16.2761;
	4314	7571	0.002961	0.01669	0	319	0	0	1	0	1	-360	360	-26.1300	-0.9610	26.1498	1.0726;
	5803	3916	0.00056	0.00432	0	0	0	0	1	0	1	-360	360	0.0000	0.3813	0.0000	-0.3813;
	6757	6036	0.0002	0.00246	0	657	0	0	1	0	1	-360	360	-224.7809	-11.0301	224.8740	12.1754;
	6757	6921	0.0003	0.00377	0	1315	0	0	1	0	1	-360	360	224.7809	18.1777	-224.6406	-16.4154;
	5019	9112	0.00014	0.00057	0	0	0	0	1	0	1	-360	360	49.4000	12.9457	-49.3967	-12.9321;
	2930	9112	0.00013	0.000729	0	0	0	0	1	0	1	-360	360	53.2000	10.4140	-53.1965	-10.3945;
	1436	9112	0.00012	0.000581	0	0	0	0	1	0	1	-360	360	49.4000	12.7783	-49.3972	-12.7645;
	1851	9112	0.00011	0.00064	0	0	0	0	1	0	1	-360	360	15.6000	7.6994	-15.5997	-7.6977;
	8331	9112	0.00019	0.00056	0	0	0	0	1	0	1	-360	360	0.0000	0.0549	0.0000	-0.0549;
	6220	8791	0.00062	0.004909	0	529	0	0	1	0	1	-360	360	-231.9000	-27.2127	232.2142	29.7003;
	9203	7842	7e-05	0.00076	0	887	0	0	1	0	1	-360	360	-164.9059	329.3030	165.0000	-328.2810;
	9203	8997	0.00066	0.00622	0	1611	0	0	1	0	1	-360	360	174.1930	97.9073	-173.9317	-95.4449;
	9203	2129	0.00054	0.00752	0	0	0	0	1	0	1	-360	360	-1021.1957	-74.2983	1026.8086	152.4632;
	9203	29	0.00105	0.00877	0	1315	0	0	1	0	1	-360	360	242.3286	-48.9466	-241.6923	54.2611;
	118	8903	8e-05	0.00091	0	657	0	0	1	0	1	-360	360	-16.9904	110.4301	17.0000	-110.3212;
	118	4598	0.00056	0.00719	0	953	0	0	1	0	1	-360	360	-867.5144	6.4140	871.5556	45.4722;
	2426	5533	0.000531	0.002039	0	319	0	0	1	0	1	-360	360	-91.2894	-2.8669	91.3306	3.0249;
	2426	4831	0.008659	0.03769	0	300	0	0	1	0	1	-360	360	109.5727	15.7786	-108.5872	-11.4891;
	2426	8961	0.003849	0.021099	0	0	0	0	1	0	1	-360	360	39.5077	3.8983	-39.4514	-3.5895;
	2426	8522	0.00688	0.035969	0	300	0	0	1	0	1	-360	360	106.9864	33.2330	-106.1845	-29.0406;
	2426	6888	0.006729	0.03713	0	0	0	0	1	0	1	-360	360	-3.4683	-3.6936	3.4699	3.7024;
	2426	3401	0.00111	0.006651	0	414	0	0	1	0	1	-360	360	106.2846	29.0116	-106.1595	-28.2619;
	2426	641	0.0023	0.008909	0	0	0	0	1	0	1	-360	360	45.3708	17.9039	-45.3200	-17.7071;
	2426	2600	0.000841	0.00313	0	0	0	0	1	0	1	-360	360	-76.4321	-16.9839	76.4800	17.1621;
	2426	5351	0.003521	0.017479	0	300	0	0	1	0	1	-360	360	42.1893	10.1868	-42.1277	-9.8811;
	3051	718	3.9e-05	0.00025	0	510	0	0	1	0	1	-360	360	0.0000	0.0000	0.0000	0.0000;
	3036	2327	0.000159	0.000729	0	357	0	0	1	0	1	-360	360	-116.9300	-30.3197	116.9537	30.4284;
	8651	7473	0.005281	0.032099	0	395	0	0	1	0	1	-360	360	-77.6337	-20.0974	77.9690	22.1358;
	8651	7473	0.005651	0.029419	0	376	0	0	1	0	1	-360	360	-84.8563	-19.5644	85.2795	21.7674;
	903	3654	0.000271	0.00036	0	0	0	0	1	0	1	-360	360	-82.6900	-18.7067	82.7090	18.7320;
	8732	7050	0.00044	0.00143	0	472	0	0	1	0	1	-360	360	112.6537	-15.1528	-112.6006	15.3256;
	8732	3912	0.000159	0.00074	0	453	0	0	1	0	1	-360	360	-178.9237	9.6878	178.9715	-9.4656;
	2273	1973	0.00019	0.000591	0	338	0	0	1	0	1	-360	360	-141.3000	-24.9240	141.3381	25.0426;
	5131	2928	0.00019	0.00087	0	0	0	0	1	0	1	-360	360	0.0000	8.0446	0.0001	-8.0441;
	6629	4918	0.002591	0.013659	0	319	0	0	1	0	1	-360	360	-54.6796	-17.0393	54.7561	17.4428;
	6629	7309	0.00305	0.01168	0	0	0	0	1	0	1	-360	360	-7.9504	2.9934	7.9524	-2.9858;
	413	1102	0.000159	0.000599	0	433	0	0	1	0	1	-360	360	117.4183	12.8713	-117.3982	-12.7955;
	413	1102	0.000159	0.00062	0	395	0	0	1	0	1	-360	360	113.5817	13.4192	-113.5629	-13.3457;
	3248	4918	0.00101	0.004229	0	472	0	0	1	0	1	-360	360	-148.6390	-57.8963	148.8705	58.8657;
	3248	4281	0.00319	0.018651	0	453	0	0	1	0	1	-360	360	56.4961	51.9269	-56.3269	-50.9376;
	3248	7309	0.000729	0.00337	0	0	0	0	1	0	1	-360	360	7.9529	-4.4487	-7.9524	4.4512;
	1146	1187	0.002961	0.012831	0	281	0	0	1	0	1	-360	360	-107.1672	-40.3463	107.5360	41.9443;
	1146	7945	0.000591	0.00339	0	0	0	0	1	0	1	-360	360	74.3272	41.8308	-74.2863	-41.5965;
	8900	2421	0.00024	0.001219	0	0	0	0	1	0	1	-360	360	-3.1000	-1.5012	3.1000	1.5013;
	6071	2972	0.006219	0.036341	0	376	0	0	1	0	1	-360	360	-55.5839	45.0432	55.8839	-43.2903;
	6071	6031	0.001841	0.01193	0	472	0	0	1	0	1	-360	360	-107.9161	-75.7726	108.2177	77.7273;
	3293	7264	0.001409	0.01113	0	414	0	0	1	0	1	-360	360	-99.4156	73.4901	99.6219	-71.8607;
	3293	283	0.00151	0.00768	0	376	0	0	1	0	1	-360	360	150.0797	88.1701	-149.6414	-85.9413;
	3293	3069	0.00599	0.03313	0	395	0	0	1	0	1	-360	360	-99.5729	17.4283	100.1592	-14.1856;
	3293	3390	0.001771	0.010151	0	357	0	0	1	0	1	-360	360	15.7689	-185.9799	-15.1779	189.3672;
	4689	4936	0.00074	0.00311	0	0	0	0	1	0	1	-360	360	-55.2041	9.3427	55.2258	-9.2517;
	4689	4936	0.000729	0.003159	0	0	0	0	1	0	1	-360	360	-54.4959	8.8421	54.5166	-8.7522;
	3218	7809	0.005271	0.01906	0	281	0	0	1	0	1	-360	360	26.6422	11.7511	-26.6000	-11.5983;
	3218	5455	0.00906	0.053151	0	319	0	0	1	0	1	-360	360	-111.5970	11.7461	112.6755	-5.4192;
	3218	1857	0.00405	0.0153	0	0	0	0	1	0	1	-360	360	-22.4452	5.3006	22.4656	-5.2237;
	6806	5410	0.00055	0.003961	0	395	0	0	1	0	1	-360	360	55.4059	15.5448	-55.3888	-15.4218;
	6806	5410	0.00055	0.003729	0	338	0	0	1	0	1	-360	360	58.9192	15.9937	-58.9000	-15.8634;
	6806	1609	0.00107	0.007789	0	414	0	0	1	0	1	-360	360	-148.6326	-26.9833	148.8615	28.6496;
	6806	1609	0.00112	0.00775	0	472	0	0	1	0	1	-360	360	-149.4193	-26.0465	149.6608	27.7179;
	6806	1609	0.001031	0.00775	0	0	0	0	1	0	1	-360	360	-149.3497	-27.7717	149.5727	29.4483;
	6806	2438	0.00062	0.003219	0	0	0	0	1	0	1	-360	360	0.0000	-1.1201	-0.0000	1.1201;
	6806	954	0.00068	0.002659	0	414	0	0	1	0	1	-360	360	197.2365	39.2879	-196.9787	-38.2797;
	9140	502	0.00193	0.012479	0	491	0	0	1	0	1	-360	360	223.3477	19.1920	-222.4674	-13.4999;
	9140	3013	0.001159	0.007229	0	0	0	0	1	0	1	-360	360	2.2001	0.3622	-2.2000	-0.3619;
	9140	2949	0.00137	0.008729	0	395	0	0	1	0	1	-360	360	-86.3902	41.3290	86.5043	-40.6023;
	9140	2949	0.001401	0.00855	0	433	0	0	1	0	1	-360	360	-87.8176	42.7414	87.9389	-42.0011;
	9140	2949	0.001331	0.008521	0	433	0	0	1	0	1	-360	360	-88.5399	42.2782	88.6562	-41.5337;
	7070	2208	0.00031	0.00081	0	281	0	0	1	0	1	-360	360	74.9975	23.7089	-74.9800	-23.6631;
	7070	8060	0.000341	0.00119	0	281	0	0	1	0	1	-360	360	0.0005	-13.1566	-0.0000	13.1585;
	7070	4484	0.00031	0.001281	0	376	0	0	1	0	1	-360	360	-102.6893	-5.3620	102.7192	5.4858;
	7070	4239	0.00094	0.0035	0	433	0	0	1	0	1	-360	360	-115.2088	-4.5277	115.3230	4.9529;
	8535	7047	7e-05	0.000651	0	0	0	0	1	0	1	-360	360	-72.6800	-21.2090	72.6841	21.2467;
	5477	3657	0.00019	0.00124	0	491	0	0	1	0	1	-360	360	-136.0244	-2.4322	136.0586	2.6554;
	5477	2928	0.000331	0.002539	0	433	0	0	1	0	1	-360	360	136.0244	20.9552	-135.9634	-20.4873;
	3145	2918	0.0016	0.02113	0	0	0	0	1	0	1	-360	360	-1117.0626	72.6735	1136.8961	189.2531;
	7770	5317	0.000909	0.004711	0	357	0	0	1	0	1	-360	360	24.8685	43.3125	-24.8447	-43.1891;
	7770	5317	0.00088	0.004969	0	319	0	0	1	0	1	-360	360	23.0102	41.5379	-22.9894	-41.4202;
	3	8676	0.001841	0.0088	0	0	0	0	1	0	1	-360	360	11.1632	-30.7333	-11.1441	30.8244;
	3	8189	0.01013	0.04238	0	395	0	0	1	0	1	-360	360	-162.1632	-13.2225	164.7594	24.0842;
	7267	2938	0.00059	0.00802	0	723	0	0	1	0	1	-360	360	-54.5563	26.2091	54.5775	-25.9216;
	7267	2938	0.00054	0.0079	0	657	0	0	1	0	1	-360	360	-55.5427	26.3293	55.5626	-26.0372;
	7267	3918	0.00171	0.02128	0	986	0	0	1	0	1	-360	360	-502.6553	-5.1736	506.8843	57.8011;
	7267	3918	0.00174	0.02084	0	854	0	0	1	0	1	-360	360	-513.1509	-3.6829	517.6355	57.3941;
	7267	6581	0.00086	0.01433	0	1151	0	0	1	0	1	-360	360	-677.5202	-156.6864	681.5905	224.5088;
	7267	6581	0.00087	0.01404	0	723	0	0	1	0	1	-360	360	-691.7422	-158.5590	696.0307	227.7659;
	7267	3830	0.00126	0.01447	0	1118	0	0	1	0	1	-360	360	743.7196	-12.5702	-736.8968	90.9251;
	7267	5648	0.00122	0.01509	0	1052	0	0	1	0	1	-360	360	675.6466	-5.3248	-670.1955	72.7482;
	7267	5648	0.00154	0.019	0	1282	0	0	1	0	1	-360	360	536.5959	-4.3379	-532.2558	57.8845;
	4918	4907	0.00474	0.03564	0	472	0	0	1	0	1	-360	360	125.8743	31.6509	-125.1600	-26.2803;
	4918	5957	0.006	0.047849	0	433	0	0	1	0	1	-360	360	210.5913	53.0529	-208.0600	-32.8664;
	4918	5233	0.008039	0.03375	0	281	0	0	1	0	1	-360	360	0.4508	53.3008	-0.2465	-52.4431;
	6854	7309	2.1e-05	0.000211	0	510	0	0	1	0	1	-360	360	0.0000	0.0000	0.0000	0.0000;
	8311	3680	0.00045	0.002341	0	0	0	0	1	0	1	-360	360	-8.7500	14.2582	8.7512	-14.2521;
	2770	8804	0.000669	0.004281	0	433	0	0	1	0	1	-360	360	-85.3900	-13.9307	85.4375	14.2344;
	9241	8804	0.00068	0.00419	0	0	0	0	1	0	1	-360	360	0.0000	0.3807	0.0000	-0.3807;
	3083	7124	0.000729	0.00431	0	510	0	0	1	0	1	-360	360	-219.4350	-47.7126	219.7820	49.7639;
	3083	7124	0.000591	0.004651	0	453	0	0	1	0	1	-360	360	-202.5858	-52.8663	202.8303	54.7905;
	3083	8873	0.00099	0.005081	0	338	0	0	1	0	1	-360	360	-145.9492	-28.9963	146.1561	30.0581;
	1566	7582	0.00212	0.013031	0	0	0	0	1	0	1	-360	360	-42.2359	10.7321	42.2774	-10.4775;
	1566	3541	0.002159	0.01275	0	0	0	0	1	0	1	-360	360	-114.6641	-4.3221	114.9566	6.0495;
	8683	3698	0.00025	0.00095	0	0	0	0	1	0	1	-360	360	77.5276	-2.6068	-77.5137	2.6595;
	8683	3698	0.000271	0.00089	0	0	0	0	1	0	1	-360	360	81.6957	-5.8810	-81.6789	5.9360;
	8683	2801	0.001961	0.012409	0	281	0	0	1	0	1	-360	360	35.3527	2.4821	-35.3300	-2.3385;
	8683	8328	0.00044	0.00207	0	472	0	0	1	0	1	-360	360	130.7522	4.1702	-130.6828	-3.8439;
	8683	8511	0.000469	0.00143	0	529	0	0	1	0	1	-360	360	297.5072	-30.2478	-297.1209	31.4257;
	8683	6570	0.001271	0.01406	0	529	0	0	1	0	1	-360	360	-471.5422	147.1371	474.3986	-115.5388;
	8683	6570	0.00124	0.013021	0	529	0	0	1	0	1	-360	360	-508.1754	161.2437	511.4218	-127.1545;
	8683	8975	0.000409	0.00239	0	0	0	0	1	0	1	-360	360	0.0005	-11.9894	-0.0000	11.9926;
	8683	216	0.00094	0.005	0	338	0	0	1	0	1	-360	360	125.6306	31.1753	-125.4855	-30.4037;
	8683	2961	0.000219	0.0007	0	529	0	0	1	0	1	-360	360	313.3646	15.4669	-313.1660	-14.8322;
	8683	6773	6e-05	0.00025	0	0	0	0	1	0	1	-360	360	0.0000	-2.3669	-0.0000	2.3669;
	8683	5278	5e-05	0.000229	0	0	0	0	1	0	1	-360	360	-119.3934	-2.1273	119.4000	2.1574;
	3768	2751	0.00019	0.000909	0	0	0	0	1	0	1	-360	360	-19.8200	-10.8471	19.8209	10.8515;
	2276	5546	0.001711	0.00782	0	0	0	0	1	0	1	-360	360	-21.4928	-2.5550	21.5000	2.5880;
	2276	6816	0.002651	0.01176	0	319	0	0	1	0	1	-360	360	60.3928	-18.4356	-60.2975	18.8583;
	7766	444	0.001409	0.010599	0	0	0	0	1	0	1	-360	360	-87.2295	-38.1123	87.3562	39.0648;
	7766	5334	0.001419	0.010219	0	0	0	0	1	0	1	-360	360	8.3395	14.1257	-8.3358	-14.0984;
	839	3918	0.00013	0.00212	0	756	0	0	1	0	1	-360	360	420.5570	32.0496	-420.3378	-28.4741;
	839	809	0.00026	0.00313	0	1282	0	0	1	0	1	-360	360	-779.2479	6.7099	780.7448	11.3104;
	4506	2286	0.0047	0.0318	0	376	0	0	1	0	1	-360	360	168.4632	23.5116	-167.1964	-14.9402;
	4506	6802	0.00136	0.00768	0	338	0	0	1	0	1	-360	360	34.2801	33.8771	-34.2506	-33.7109;
	4506	3520	0.005669	0.027789	0	300	0	0	1	0	1	-360	360	-16.2982	58.8930	16.4954	-57.9263;
	7273	6271	0.004409	0.033091	0	281	0	0	1	0	1	-360	360	-228.0415	29.6692	230.3808	-12.1124;
	7273	1435	0.01056	0.044469	0	0	0	0	1	0	1	-360	360	0.0016	-3.8440	0.0000	3.8506;
	7273	7148	0.01963	0.07736	0	338	0	0	1	0	1	-360	360	-44.9932	-45.5325	45.8002	48.7128;
	7273	7437	0.01157	0.04694	0	357	0	0	1	0	1	-360	360	53.4331	1.1390	-53.1016	0.2062;
	6104	871	0.000479	0.00255	0	357	0	0	1	0	1	-360	360	-93.1200	-4.7900	93.1575	4.9895;
	7580	871	0.000469	0.00236	0	0	0	0	1	0	1	-360	360	0.0000	0.1891	0.0000	-0.1891;
	1188	1539	0.01237	0.067039	0	281	0	0	1	0	1	-360	360	28.6624	-1.8753	-28.5696	2.3783;
	1188	8515	0.0132	0.056229	0	281	0	0	1	0	1	-360	360	-59.5924	5.2721	60.0220	-3.4422;
	3971	4084	0.00026	0.001711	0	0	0	0	1	0	1	-360	360	-66.4935	4.6083	66.5037	-4.5410;
	3971	4084	0.000271	0.001669	0	0	0	0	1	0	1	-360	360	-68.0065	5.4082	68.0177	-5.3395;
	6845	5340	0.000211	0.000401	0	0	0	0	1	0	1	-360	360	102.9000	18.2365	-102.8793	-18.1971;
	8294	5814	0.00105	0.005159	0	0	0	0	1	0	1	-360	360	-14.2200	-5.8861	14.2223	5.8973;
	7115	6807	0.00212	0.00931	0	319	0	0	1	0	1	-360	360	65.8700	14.2720	-65.7754	-13.8563;
	619	6791	0.000151	0.00068	0	0	0	0	1	0	1	-360	360	-72.8800	-11.5023	72.8884	11.5401;
	5418	4908	0.00019	0.00082	0	0	0	0	1	0	1	-360	360	0.0000	4.2312	0.0000	-4.2311;
	5120	6816	0.003219	0.01405	0	300	0	0	1	0	1	-360	360	75.6000	-3.9091	-75.4344	4.6317;
	6692	9158	0.007271	0.033159	0	281	0	0	1	0	1	-360	360	-51.9199	7.7135	52.1177	-6.8112;
	6692	8035	0.006659	0.03132	0	300	0	0	1	0	1	-360	360	41.5899	-6.3052	-41.4735	6.8525;
	3445	2848	0.00057	0.00668	0	1480	0	0	1	0	1	-360	360	513.2835	26.0420	-511.8080	-8.7501;
	3445	7056	0.00057	0.00758	0	1414	0	0	1	0	1	-360	360	-384.6536	81.8452	385.5175	-70.3564;
	3445	7056	0.00039	0.00607	0	821	0	0	1	0	1	-360	360	-481.7925	97.0400	482.7157	-82.6714;
	3445	1642	0.00155	0.0179	0	0	0	0	1	0	1	-360	360	-658.5625	-9.4966	665.1520	85.5947;
	3445	4594	0.00036	0.00485	0	1545	0	0	1	0	1	-360	360	-84.2358	-107.3615	84.3015	108.2466;
	6114	1692	0.000581	0.004229	0	338	0	0	1	0	1	-360	360	83.2332	25.7780	-83.1900	-25.4638;
	6114	8190	0.00056	0.00431	0	0	0	0	1	0	1	-360	360	0.0000	-0.3270	-0.0000	0.3270;
	6114	5836	0.003099	0.020531	0	472	0	0	1	0	1	-360	360	164.2715	-21.2014	-163.4395	26.7137;
	6114	3191	0.00118	0.016919	0	510	0	0	1	0	1	-360	360	205.5487	-4.9603	-205.0605	11.9600;
	6114	5300	0.00188	0.01407	0	0	0	0	1	0	1	-360	360	99.4998	-43.4977	-99.2828	45.1214;
	6114	4889	0.00545	0.04082	0	357	0	0	1	0	1	-360	360	95.4994	12.1463	-95.0051	-8.4441;
	7264	444	0.00214	0.01639	0	453	0	0	1	0	1	-360	360	139.6999	18.9532	-139.2872	-15.7925;
	7264	4747	0.002479	0.01549	0	0	0	0	1	0	1	-360	360	162.2004	10.3595	-161.5650	-6.3893;
	7982	9011	0.000159	0.001229	0	472	0	0	1	0	1	-360	360	-158.4289	83.9098	158.4770	-83.5379;
	7982	6675	0.00026	0.00162	0	453	0	0	1	0	1	-360	360	185.8395	19.7624	-185.7540	-19.2297;
	7982	6909	0.000159	0.00113	0	376	0	0	1	0	1	-360	360	-9.6309	-140.7765	9.6607	140.9883;
	7982	8835	0.000461	0.003219	0	472	0	0	1	0	1	-360	360	-129.7798	63.1830	129.8702	-62.5515;
	7982	4186	0.000159	0.001229	0	0	0	0	1	0	1	-360	360	0.0000	-5.3748	-0.0000	5.3751;
	1604	502	0.000229	0.00139	0	376	0	0	1	0	1	-360	360	50.6000	14.0266	-50.5942	-13.9914;
	2842	502	0.0002	0.00156	0	338	0	0	1	0	1	-360	360	31.6000	5.8296	-31.5981	-5.8148;
	1354	513	0.00145	0.00824	0	281	0	0	1	0	1	-360	360	20.1598	31.8831	-20.1408	-31.7749;
	1354	502	0.00069	0.005	0	491	0	0	1	0	1	-360	360	-266.6598	-14.0448	267.1138	17.3344;
	891	3697	0.00036	0.00455	0	1809	0	0	1	0	1	-360	360	710.8028	229.1421	-709.0309	-206.7479;
	891	3697	0.00036	0.00453	0	1776	0	0	1	0	1	-360	360	714.0012	229.8996	-712.2138	-207.4077;
	8312	7541	0.00066	0.00997	0	1348	0	0	1	0	1	-360	360	859.3407	185.3184	-854.9528	-119.0331;
	8312	7541	0.00064	0.01016	0	986	0	0	1	0	1	-360	360	842.8593	184.5827	-838.7602	-119.5101;
	6306	4826	9.9e-05	0.00044	0	529	0	0	1	0	1	-360	360	277.3711	44.8957	-277.2990	-44.5752;
	4826	4418	6e-05	0.000469	0	0	0	0	1	0	1	-360	360	0.0000	-0.0541	0.0000	0.0541;
	4826	1605	3.9e-05	0.000341	0	0	0	0	1	0	1	-360	360	0.0000	-0.0541	0.0000	0.0541;
	4826	6952	0.002531	0.01943	0	433	0	0	1	0	1	-360	360	81.3982	39.4791	-81.2069	-38.0105;
	4826	7124	0.00945	0.06418	0	414	0	0	1	0	1	-360	360	92.3008	1.3535	-91.5571	3.6972;
	9128	217	0.000591	0.002831	0	357	0	0	1	0	1	-360	360	-50.5600	-8.5008	50.5748	8.5717;
	7014	217	0.00087	0.00387	0	0	0	0	1	0	1	-360	360	-0.0000	0.3149	0.0000	-0.3149;
	720	5350	0.0015	0.01785	0	1183	0	0	1	0	1	-360	360	-225.1347	81.7044	225.9459	-72.0516;
	720	5350	0.00147	0.0182	0	1151	0	0	1	0	1	-360	360	-221.1229	79.4380	221.8880	-69.9658;
	1711	639	0.00151	0.0113	0	376	0	0	1	0	1	-360	360	44.9546	-35.4126	-44.9096	35.7494;
	1711	639	0.001479	0.011521	0	395	0	0	1	0	1	-360	360	44.3011	-34.5284	-44.2586	34.8592;
	1711	9130	0.00174	0.010341	0	414	0	0	1	0	1	-360	360	177.8860	-17.3606	-177.3801	20.3673;
	1711	9130	0.001659	0.01206	0	453	0	0	1	0	1	-360	360	153.6113	-10.3521	-153.2534	12.9539;
	8209	1998	0.00069	0.000479	0	0	0	0	1	0	1	-360	360	25.7344	4.3222	-25.7300	-4.3191;
	8209	7974	0.00044	0.00139	0	0	0	0	1	0	1	-360	360	-109.1244	-3.4483	109.1740	3.6050;
	1035	8180	0.002039	0.01601	0	0	0	0	1	0	1	-360	360	-198.4112	1.4713	199.1721	4.5033;
	1035	7466	0.01349	0.05662	0	357	0	0	1	0	1	-360	360	93.6865	-73.7691	-91.8683	81.4004;
	1035	305	0.00082	0.00438	0	300	0	0	1	0	1	-360	360	51.9787	5.6332	-51.9575	-5.5197;
	1035	305	0.0008	0.004461	0	281	0	0	1	0	1	-360	360	51.0626	5.9282	-51.0425	-5.8165;
	1035	5106	0.001091	0.00888	0	453	0	0	1	0	1	-360	360	-168.9283	1.8635	169.2235	0.5388;
	1035	5106	0.00111	0.007039	0	491	0	0	1	0	1	-360	360	-211.8883	9.5814	212.3616	-6.5796;
	2527	8466	0.000849	0.00537	0	433	0	0	1	0	1	-360	360	-59.7700	-16.0061	59.8000	16.1958;
	8669	8893	0.00061	0.00275	0	357	0	0	1	0	1	-360	360	-74.9800	3.7021	75.0114	-3.5606;
	6206	7691	0.00141	0.0188	0	1315	0	0	1	0	1	-360	360	398.2463	81.5453	-396.1217	-53.2167;
	6206	6624	0.00121	0.01427	0	1545	0	0	1	0	1	-360	360	-580.4577	-16.0232	584.1781	59.8988;
	3240	8158	0.001711	0.007159	0	338	0	0	1	0	1	-360	360	-152.6384	3.5438	153.0000	-2.0310;
	3240	8795	0.00545	0.02381	0	300	0	0	1	0	1	-360	360	-80.1014	2.0410	80.4186	-0.6552;
	3240	4143	0.000771	0.004331	0	0	0	0	1	0	1	-360	360	11.1109	3.2231	-11.1100	-3.2178;
	3240	2797	0.00414	0.03282	0	453	0	0	1	0	1	-360	360	199.0675	6.6395	-197.5786	5.1635;
	3240	6331	0.00264	0.011521	0	338	0	0	1	0	1	-360	360	-48.7423	-5.8161	48.8000	6.0678;
	3240	6384	0.00261	0.011	0	376	0	0	1	0	1	-360	360	101.0472	46.6277	-100.7542	-45.3928;
	3240	7523	0.00239	0.00919	0	319	0	0	1	0	1	-360	360	-85.4317	1.3164	85.5899	-0.7082;
	3240	2889	0.000539	0.00226	0	0	0	0	1	0	1	-360	360	-9.0837	7.7046	9.0844	-7.7017;
...
];

%%-----  OPF Data  -----%%
%% generator cost data
%	1	startup	shutdown	n	x1	y1	...	xn	yn
%	2	startup	shutdown	n	c(n-1)	...	c0
mpc.gencost = [
	2	0	0	3	0	1	0;
	2	0	0	3	0	1	0;
	2	0	0	3	0	1	0;
	2	0	0	3	0	1	0;
	2	0	0	3	0	1	0;
	2	0	0	3	0	1	0;
	2	0	0	3	0	1	0;
	2	0	0	3	0	1	0;
	2	0	0	3	0	1	0;
	2	0	0	3	0	1	0;
	2	0	0	3	0	1	0;
	2	0	0	3	0	1	0;
	2	0	0	3	0	1	0;
	2	0	0	3	0	1	0;
	2	0	0	3	0	1	0;
	2	0	0	3	0	1	0;
	2	0	0	3	0	1	0;
	2	0	0	3	0	1	0;
	2	0	0	3	0	1	0;
	2	0	0	3	0	1	0;
	2	0	0	3	0	1	0;
	2	0	0	3	0	1	0;
	2	0	0	3	0	1	0;
	2	0	0	3	0	1	0;
	2	0	0	3	0	1	0;
	2	0	0	3	0	1	0;
	2	0	0	3	0	1	0;
	2	0	0	3	0	1	0;
	2	0	0	3	0	1	0;
	2	0	0	3	0	1	0;
	2	0	0	3	0	1	0;
	2	0	0	3	0	1	0;
	2	0	0	3	0	1	0;
	2	0	0	3	0	1	0;
	2	0	0	3	0	1	0;
	2	0	0	3	0	1	0;
	2	0	0	3	0	1	0;
	2	0	0	3	0	1	0;
	2	0	0	3	0	1	0;
	2	0	0	3	0	1	0;
	2	0	0	3	0	1	0;
	2	0	0	3	0	1	0;
	2	0	0	3	0	1	0;
	2	0	0	3	0	1	0;
	2	0	0	3	0	1	0;
	2	0	0	3	0	1	0;
	2	0	0	3	0	1	0;
	2	0	0	3	0	1	0;
	2	0	0	3	0	1	0;
	2	0	0	3	0	1	0;
	2	0	0	3	0	1	0;
	2	0	0	3	0	1	0;
	2	0	0	3	0	1	0;
	2	0	0	3	0	1	0;
	2	0	0	3	0	1	0;
	2	0	0	3	0	1	0;
	2	0	0	3	0	1	0;
	2	0	0	3	0	1	0;
	2	0	0	3	0	1	0;
	2	0	0	3	0	1	0;
	2	0	0	3	0	1	0;
	2	0	0	3	0	1	0;
	2	0	0	3	0	1	0;
	2	0	0	3	0	1	0;
	2	0	0	3	0	1	0;
	2	0	0	3	0	1	0;
	2	0	0	3	0	1	0;
	2	0	0	3	0	1	0;
	2	0	0	3	0	1	0;
	2	0	0	3	0	1	0;
	2	0	0	3	0	1	0;
	2	0	0	3	0	1	0;
	2	0	0	3	0	1	0;
	2	0	0	3	0	1	0;
	2	0	0	3	0	1	0;
	2	0	0	3	0	1	0;
	2	0	0	3	0	1	0;
	2	0	0	3	0	1	0;
	2	0	0	3	0	1	0;
	2	0	0	3	0	1	0;
	2	0	0	3	0	1	0;
	2	0	0	3	0	1	0;
	2	0	0	3	0	1	0;
	2	0	0	3	0	1	0;
	2	0	0	3	0	1	0;
	2	0	0	3	0	1	0;
	2	0	0	3	0	1	0;
	2	0	0	3	0	1	0;
	2	0	0	3	0	1	0;
	2	0	0	3	0	1	0;
	2	0	0	3	0	1	0;
	2	0	0	3	0	1	0;
	2	0	0	3	0	1	0;
	2	0	0	3	0	1	0;
	2	0	0	3	0	1	0;
	2	0	0	3	0	1	0;
	2	0	0	3	0	1	0;
	2	0	0	3	0	1	0;
	2	0	0	3	0	1	0;
	2	0	0	3	0	1	0;
	2	0	0	3	0	1	0;
	2	0	0	3	0	1	0;
	2	0	0	3	0	1	0;
	2	0	0	3	0	1	0;
	2	0	0	3	0	1	0;
	2	0	0	3	0	1	0;
	2	0	0	3	0	1	0;
	2	0	0	3	0	1	0;
	2	0	0	3	0	1	0;
	2	0	0	3	0	1	0;
	2	0	0	3	0	1	0;
	2	0	0	3	0	1	0;
	2	0	0	3	0	1	0;
	2	0	0	3	0	1	0;
	2	0	0	3	0	1	0;
	2	0	0	3	0	1	0;
	2	0	0	3	0	1	0;
	2	0	0	3	0	1	0;
	2	0	0	3	0	1	0;
	2	0	0	3	0	1	0;
	2	0	0	3	0	1	0;
	2	0	0	3	0	1	0;
	2	0	0	3	0	1	0;
	2	0	0	3	0	1	0;
	2	0	0	3	0	1	0;
	2	0	0	3	0	1	0;
	2	0	0	3	0	1	0;
	2	0	0	3	0	1	0;
	2	0	0	3	0	1	0;
	2	0	0	3	0	1	0;
	2	0	0	3	0	1	0;
	2	0	0	3	0	1	0;
	2	0	0	3	0	1	0;
	2	0	0	3	0	1	0;
	2	0	0	3	0	1	0;
	2	0	0	3	0	1	0;
	2	0	0	3	0	1	0;
	2	0	0	3	0	1	0;
	2	0	0	3	0	1	0;
	2	0	0	3	0	1	0;
	2	0	0	3	0	1	0;
	2	0	0	3	0	1	0;
	2	0	0	3	0	1	0;
	2	0	0	3	0	1	0;
	2	0	0	3	0	1	0;
	2	0	0	3	0	1	0;
	2	0	0	3	0	1	0;
	2	0	0	3	0	1	0;
	2	0	0	3	0	1	0;
	2	0	0	3	0	1	0;
	2	0	0	3	0	1	0;
	2	0	0	3	0	1	0;
	2	0	0	3	0	1	0;
	2	0	0	3	0	1	0;
	2	0	0	3	0	1	0;
	2	0	0	3	0	1	0;
	2	0	0	3	0	1	0;
	2	0	0	3	0	1	0;
	2	0	0	3	0	1	0;
	2	0	0	3	0	1	0;
	2	0	0	3	0	1	0;
	2	0	0	3	0	1	0;
	2	0	0	3	0	1	0;
	2	0	0	3	0	1	0;
	2	0	0	3	0	1	0;
	2	0	0	3	0	1	0;
	2	0	0	3	0	1	0;
	2	0	0	3	0	1	0;
	2	0	0	3	0	1	0;
	2	0	0	3	0	1	0;
	2	0	0	3	0	1	0;
	2	0	0	3	0	1	0;
	2	0	0	3	0	1	0;
	2	0	0	3	0	1	0;
	2	0	0	3	0	1	0;
	2	0	0	3	0	1	0;
	2	0	0	3	0	1	0;
	2	0	0	3	0	1	0;
	2	0	0	3	0	1	0;
	2	0	0	3	0	1	0;
	2	0	0	3	0	1	0;
	2	0	0	3	0	1	0;
	2	0	0	3	0	1	0;
	2	0	0	3	0	1	0;
	2	0	0	3	0	1	0;
	2	0	0	3	0	1	0;
	2	0	0	3	0	1	0;
	2	0	0	3	0	1	0;
	2	0	0	3	0	1	0;
	2	0	0	3	0	1	0;
	2	0	0	3	0	1	0;
	2	0	0	3	0	1	0;
	2	0	0	3	0	1	0;
	2	0	0	3	0	1	0;
	2	0	0	3	0	1	0;
	2	0	0	3	0	1	0;
	2	0	0	3	0	1	0;
	2	0	0	3	0	1	0;
	2	0	0	3	0	1	0;
	2	0	0	3	0	1	0;
...
];
